FoamFile
{
    format      ascii;
    class       dictionary;
    object      radiationProperties;
}

radiationModel  none;
